42

C      0.9557996838    1.3182268347   -1.6024759890
C      0.9811871112    6.0127082809    0.1587240245
C      0.9557996815   -0.1071897438   -1.6024760020
C      0.9811871089    4.5872917025    0.1587240116
C     -0.4000362697   -0.5478107166   -1.6026229642
C     -0.3746488423    4.1466707296    0.1585770494
C     -1.2375126073    0.6055185474   -1.6024104434
C     -1.2121251798    5.2999999937    0.1587895702
C     -0.4000362654    1.7588478145   -1.6026229376
C     -0.3746488380    6.4533292608    0.1585770760
H      1.8364940333    1.9578813592   -1.5717972627
H      1.8618814607    6.6523628054    0.1894027509
H      1.8364940227   -0.7468442744   -1.5717973341
H      1.8618814501    3.9476371718    0.1894026794
H     -0.7364469975   -1.5828894850   -1.5719990624
H     -0.7110595700    3.1115919613    0.1892009512
H     -2.3261733963    0.6055185336   -1.5703054156
H     -2.3007859689    5.2999999798    0.1908945980
H     -0.7364469841    2.7939265855   -1.5719989738
H     -0.7110595567    7.4884080317    0.1892010397
Fe    -0.0253874364    0.6055185488    0.0387999835
Fe    -0.0000000089    5.2999999951    1.7999999970
C     -1.0065745342   -0.1071897317    1.6800759738
C     -0.9811871068    4.5872917146    3.4412759874
C     -1.0065745326    1.3182268474    1.6800759825
C     -0.9811871051    6.0127082937    3.4412759961
C      0.3492614124    1.7588478317    1.6802229073
C      0.3746488399    6.4533292780    3.4414229209
C      1.1867377487    0.6055185642    1.6800104027
C      1.2121251761    5.3000000104    3.4412104163
C      0.3492614150   -0.5478107054    1.6802229221
C      0.3746488424    4.1466707409    3.4414229357
H     -1.8872688868   -0.7468442624    1.6493972947
H     -1.8618814594    3.9476371839    3.4105973083
H     -1.8872688761    1.9578813838    1.6493973303
H     -1.8618814487    6.6523628300    3.4105973438
H      0.6856721304    2.7939265999    1.6495989584
H      0.7110595578    7.4884080462    3.4107989720
H      2.2753985366    0.6055185619    1.6479053559
H      2.3007859640    5.3000000082    3.4091053694
H      0.6856721462   -1.5828894647    1.6495989888
H      0.7110595736    3.1115919816    3.4107990023
