66

O      4.9731083824    4.1777059440    3.1380436441
O      6.2220572911   10.4775459279    5.3990385212
O      7.0467632288    4.5516832882    3.8797579881
O      8.2957121375   10.8515232722    6.1407528652
O      4.6153209539    1.0458644767    6.2918112785
O      5.8642698625    7.3457044607    8.5528061556
N      4.8046453888    1.7511018144    4.1508520982
N      6.0535942974    8.0509417984    6.4118469753
N      7.4606441284   -0.2392512708    5.5878149665
N      8.7095930371    6.0605887132    7.8488098436
N      6.9449902182   -2.0235543620    4.3697594832
N      8.1939391269    4.2762856220    6.6307543603
N      2.2206856124   -2.1350631560    4.5931803443
N      3.4696345210    4.1647768280    6.8541752214
C      6.0369854091    2.4406486190    4.3813004419
C      7.2859343178    8.7404886030    6.6422953190
C      7.2754862640    1.6429772144    3.8968626536
C      8.5244351727    7.9428171984    6.1578575307
C      7.2465225584    0.2158410804    4.3051429787
C      8.4954714671    6.5156810644    6.5661378558
C      6.0866802743    3.8334005279    3.7924923079
C      7.3356291830   10.1332405119    6.0534871849
C      4.2167749504    1.0193454050    5.1387898229
C      5.4657238590    7.3191853890    7.3997847000
C      6.9320630114   -0.9135146931    3.5772028992
C      8.1810119201    5.3863252909    5.8381977763
C      3.0599384347    0.1542242651    4.7090556621
C      4.3088873434    6.4540642491    6.9700505392
C      7.2604353025   -1.5848833467    5.5644370181
C      8.5093842111    4.7149566373    7.8254318952
C      7.7243932506    0.5575343117    6.7604583899
C      8.9733421592    6.8573742957    9.0214532670
C      3.3175002624   -1.3102864841    5.0565411893
C      4.5664491711    4.9895534999    7.3175360664
H      6.1062026806    2.5669168281    5.4739632302
H      7.3551515893    8.8667568121    7.7349581073
H      8.1767831910    2.1696149192    4.2478117346
H      9.4257320996    8.4694549032    6.5088066117
H      7.3107087086    1.6718061764    2.7966587929
H      8.5596576173    7.9716461604    5.0576536700
H      4.4600743333    1.6628478351    3.2045000575
H      5.7090232420    7.9626878191    5.4654949346
H      6.7042516273   -0.9647861002    2.5120530597
H      7.9532005360    5.3350538838    4.7730479368
H      2.1634373400    0.5084424227    5.2457582794
H      3.4123862487    6.8082824067    7.5067531565
H      2.8532616429    0.2404245016    3.6313365727
H      4.1022105516    6.5402644856    5.8923314498
H      7.3647729833   -2.1921267080    6.4642886497
H      8.6137218920    4.1077132760    8.7252835268
H      8.1484721745   -0.0850738647    7.5430582586
H      9.3974210832    6.2147661193    9.8040531357
H      8.4556310547    1.3452306659    6.5306308227
H      9.7045799634    7.6450706499    8.7916256998
H      6.7899999959    1.0088652685    7.1263396446
H      8.0389489046    7.3087052525    9.3873345217
H      3.5262906933   -1.3663351312    6.1433471521
H      4.7752396020    4.9335048528    8.4043420292
H      4.2409652350   -1.6412070217    4.5532121027
H      5.4899141437    4.6586329623    6.8142069798
H      5.1206460064    5.0755050020    2.8004838666
H      6.3695949151   11.3753449859    5.0614787436
H      1.3967534165   -1.9936134688    5.1756146618
H      2.6457023252    4.3062265152    7.4366095389
H      2.4627042411   -3.1199083247    4.6730423206
H      3.7116531498    3.1799316593    6.9340371977

