18

N      1.0284485635   -0.4859294793    3.2987707885
C      0.2722813959   -0.5850125090    2.0821624678
C      1.0889759947    0.0037962164    0.8704669266
O      0.6421839383   -0.3478183002   -0.2845743186
C     -1.0799248282    0.1425874517    2.2896844260
C     -2.0263752251    0.2074758374    1.0500831255
C     -2.4141583554   -1.1807438468    0.5071598634
O     -3.4877133409   -1.7147707219    0.7690705490
O     -1.5074828673   -1.7479973682   -0.2899692551
O      2.0570331361    0.7467164348    1.1126701650
H      0.0614721627   -1.6579923244    1.8177820382
H     -1.6194423004   -0.3720953752    3.1124276208
H     -0.7735528014    1.1939142454    2.4703907531
H     -2.9596254353    0.7146594726    1.3530482661
H     -1.4301093708    0.6684430954    0.2380589998
H      2.0407207451   -0.4750399295    3.2363028883
H      0.5741296848   -0.4067500961    4.2013190629
H     -0.5651483681   -1.3369559524   -0.0808221683
