32

N      1.9485404617    1.1953719279   -0.0480200827
N      3.4824387668    2.2292702330    2.6265561885
C      2.7372517526    0.1599628633   -0.0526189003
C      4.2711500577    1.1938611684    2.6219573709
N      2.0488085118   -1.0329318801   -0.0346728419
N      3.5827068169    0.0009664250    2.6399034293
C      0.7215872910   -0.7238062739   -0.0169435152
C      2.2554855961    0.3100920312    2.6576327560
C      0.6821218942    0.6721998637   -0.0256745517
C      2.2160201993    1.7060981688    2.6489017195
N     -0.3031371434   -1.6007761840   -0.0055202284
N      1.2307611617   -0.5668778789    2.6690560428
C     -1.4724403310   -1.0188047665    0.0202432295
C      0.0614579741    0.0150935386    2.6948195007
C     -0.6026410490    1.3247696309   -0.0046075709
C      0.9312572561    2.3586679360    2.6699687003
N     -1.6337589785    0.3370382666    0.0205062213
N     -0.0998606734    1.3709365717    2.6950824924
O     -0.9033141858    2.4952595625   -0.0000026324
O      0.6305841193    3.5291578675    2.6745736388
N     -2.6016189146   -1.7795448971    0.0905003518
N     -1.0677206095   -0.7456465920    2.7650766230
H      3.8273015512    0.1897177609   -0.0692133705
H      5.3611998563    1.2236160659    2.6053629006
H      2.4320758286   -1.9688703584   -0.0327374099
H      3.9659741336   -0.9349720533    2.6418388613
H     -2.5635219653    0.7388425441    0.0855343659
H     -1.0296236602    1.7727408491    2.7601106371
H     -2.4479101628   -2.7667354593   -0.0697798059
H     -0.9140118577   -1.7328371542    2.6047964653
H     -3.4699445609   -1.4052926007   -0.2660932587
H     -1.9360462558   -0.3713942956    2.4084830125

