58
This is an automatically generated dimer.
  C   -2.04847174296730      0.19732495929307      0.10713987419539
C    2.4515282570327    0.19732495929307    0.10713987419539
  C   -1.96817549125468     -0.71348487065940      1.36358764762636
C    2.53182450874532    -0.7134848706594    1.36358764762636
  C   -1.96706765144871     -0.58129912485634     -1.23603007567932
C    2.53293234855129    -0.58129912485634    -1.23603007567932
  C   -1.86886371686337      0.11821243585608      2.65082008750079
C    2.6311362831366303    0.11821243585608    2.65082008750079
  C   -1.83728592541412      0.36704605944183     -2.43549950623523
C    2.66271407458588    0.36704605944183    -2.43549950623523
  C   -3.27600740723054      1.14980046324383      0.16503945688711
C    1.2239925927694602    1.14980046324383    0.16503945688711
  C   -2.91666802649100      2.61946215388274      0.39512536671070
C    1.583331973509    2.61946215388274    0.3951253667107
  H   -3.85819861161350      1.07311718533410     -0.77689673540077
H    0.6418013883864999    1.0731171853341    -0.77689673540077
  H   -2.34529026979521      2.75460206087359      1.33665081725094
H    2.15470973020479    2.75460206087359    1.33665081725094
  H   -3.97691949461637      0.80882509987670      0.95754407318226
H    0.5230805053836298    0.8088250998767    0.95754407318226
  H   -3.81999737879862      3.26029012627879      0.45430796492569
H    0.6800026212013801    3.26029012627879    0.45430796492569
  H   -2.28315851117288      3.00806342761429     -0.42967148217724
H    2.21684148882712    3.00806342761429    -0.42967148217724
  H   -1.13086268405772      0.83336956467174      0.13598094124133
H    3.3691373159422797    0.83336956467174    0.13598094124133
  H   -2.91790318039977     -1.29600610400750      1.41473136538317
H    1.5820968196002299    -1.2960061040075    1.41473136538317
  C   -0.80629811856570     -1.71318463377308      1.31175009528789
C    3.6937018814343    -1.71318463377308    1.31175009528789
  H   -0.91019362403282     -2.45326227263278      0.49434647688477
H    3.58980637596718    -2.45326227263278    0.49434647688477
  H   -0.73431370615658     -2.28146569651138      2.26160298559554
H    3.76568629384342    -2.28146569651138    2.26160298559554
  H   0.16245137990583     -1.18784066967200      1.16719640265646
H    4.66245137990583    -1.187840669672    1.16719640265646
  C   -3.12200510153580     -1.57174573158730     -1.43787011369688
C    1.3779948984642    -1.5717457315873    -1.43787011369688
  H   -3.16003894018976     -2.34125331397772     -0.63961833132243
H    1.33996105981024    -2.34125331397772    -0.63961833132243
  H   -3.01917707230915     -2.10480420369640     -2.40509165583419
H    1.4808229276908502    -2.1048042036964    -2.40509165583419
  H   -4.10490338304609     -1.05563791485112     -1.45142398444312
H    0.39509661695390985    -1.05563791485112    -1.45142398444312
  H   -1.02613680184885     -1.17242540303503     -1.20394553485121
H    3.4738631981511503    -1.17242540303503    -1.20394553485121
  H   -2.71792054750098      0.81956070739705      2.77316499160215
H    1.78207945249902    0.81956070739705    2.77316499160215
  H   -0.93421518388893      0.71971506334313      2.65914227694609
H    3.56578481611107    0.71971506334313    2.65914227694609
  H   -1.85019128192819     -0.53668153433474      3.54571537703818
H    2.64980871807181    -0.53668153433474    3.54571537703818
  H   -2.75266965656451      0.97699126536826     -2.58608891340870
H    1.74733034343549    0.97699126536826    -2.5860889134087
  H   -0.98681304011087      1.06861943658823     -2.30758895034768
H    3.51318695988913    1.06861943658823    -2.30758895034768
  H   -1.66870483010382     -0.20090853546866     -3.37312091751804
H    2.8312951698961797    -0.20090853546866    -3.37312091751804
