66

O      0.6455698523    0.2099274617    1.4302708095
O      0.5001353641    8.3094980491   -3.9654151664
C     -0.3746163948   -0.0784030483    0.5458246458
C     -0.5200508830    8.0211675391   -4.8498613301
C     -1.3234807152    1.1139725329    0.4913867263
C     -1.4689152035    9.2135431203   -4.9042992496
C     -0.5023855242    2.2639734450    1.1018400786
C     -0.6478200124   10.3635440325   -4.2938458973
C      0.5232819572    1.5402586426    2.0025061785
C      0.3778474690    9.6398292300   -3.3931797974
O      1.8376490324    0.4340462955    6.0294764750
O      1.6922145442    8.5336168829    0.6337904992
O     -0.4271263157   -1.1296048995   -0.0366744558
O     -0.5725608039    6.9699656879   -5.4323604317
H     -2.1658388143    0.8711008314    1.1741184431
H     -2.3112733025    8.9706714188   -4.2215675328
H     -0.6084589681    0.2170647467   -2.1195820853
H     -0.7538934564    8.3166353341   -7.5152680612
H     -1.1280732211    2.9922107503    1.6458275535
H     -1.2735077093   11.0917813378   -3.7498584224
H      0.0452351944    2.8000871464    0.3012360083
H     -0.1001992939   10.8996577338   -5.0944499675
O      1.6173872139   -1.1842789985    3.6920663452
O      1.4719527257    6.9152915889   -1.7036196307
H      1.5252513760    2.0030147059    1.9237689869
H      1.3798168877   10.1025852934   -3.4719169890
C     -1.9330197798    1.4246081659   -0.8523509173
C     -2.0784542680    9.5241787533   -6.2480368932
N     -2.9745704834    2.2755642787   -0.8293437117
N     -3.1200049716   10.3751348661   -6.2250296876
C     -3.4882864410    2.6202661377   -1.9955567611
C     -3.6337209292   10.7198367251   -7.3912427370
C     -3.0151770294    2.1483461932   -3.2306486019
C     -3.1606115176   10.2479167806   -8.6263345777
N     -1.9808996109    1.2975128000   -3.2601100009
N     -2.1263340991    9.3970833874   -8.6557959767
C     -1.4431282167    0.9357083499   -2.0859549690
C     -1.5885627049    9.0352789374   -7.4816409449
N     -4.6489664647    3.5881446440   -1.9593795186
N     -4.7944009529   11.6877152314   -7.3550654945
H     -3.4773897863    2.4670852637   -4.1773441756
H     -3.6228242745   10.5666558511   -9.5730301515
C      0.2253475172    1.4456286671    3.5097974241
C      0.0799130290    9.5451992545   -1.8858885518
H      0.3138154629    2.4617135533    3.9464599044
H      0.1683809747   10.5612841407   -1.4492260715
C     -1.1390150873    0.9002240778    3.9180755638
C     -1.2844495755    8.9997946652   -1.4776104121
F     -2.1437119874    1.7183457485    3.4968683330
F     -2.2891464757    9.8179163359   -1.8988176429
F     -1.2437872954    0.7919653838    5.2518966223
F     -1.3892217836    8.8915359712   -0.1437893536
F     -1.3728656127   -0.3225087524    3.3771238005
F     -1.5183001010    7.7770618350   -2.0185621754
As     1.6960040444    0.4259897995    4.4098870625
As     1.5505695562    8.5255603870   -0.9857989134
O      3.0137064990    1.2876371022    3.5438477425
O      2.8682720108    9.3872076897   -1.8518382334
H      1.3435333401   -1.0711459486    2.7491151173
H      1.1980988519    7.0284246388   -2.6465708586
H      3.8190104211    1.2096643602    4.0963160485
H      3.6735759329    9.3092349476   -1.2993699274
O     -5.0003605718    4.0042714615   -0.8675728889
O     -5.1457950600   12.1038420489   -6.2632588648
O     -5.1362607606    3.8744049118   -3.0523913334
O     -5.2816952488   11.9739754992   -8.4480773093
