52

N      0.6815139685   -2.8558856423   -0.9514367780
N      3.0435829340    4.8717005646    4.1347701185
C      1.2947446252   -1.5799458867   -1.2137876267
C      3.6568135908    6.1476403202    3.8724192698
C      2.7941576629   -1.7520375223   -1.1140218058
C      5.1562266284    5.9755486846    3.9721850908
O      3.3416506333   -2.5790882075   -0.4333397277
O      5.7037195988    5.1484979994    4.6528671688
O      3.4605826968   -0.8318749287   -1.8189509642
O      5.8226516623    6.8957112782    3.2672559323
C      0.8978670469   -0.4196618713   -0.2788645262
C      3.2599360124    7.3079243355    4.8073423703
H      1.4925757476    0.4708955730   -0.5434038073
H      3.8546447131    8.1984817798    4.5428030892
H      1.1800743527   -0.6957126403    0.7532663337
H      3.5421433182    7.0318735666    5.8394732302
C     -0.5816957509   -0.0816968876   -0.3380251975
C      1.7803732146    7.6458893193    4.7481816990
H     -1.1932583893   -0.9585119783   -0.0656737805
H      1.1688105762    6.7690742286    5.0205331160
H     -0.8570191675    0.1762002181   -1.3770835591
H      1.5050497980    7.9037864250    3.7091233374
C     -0.9661515669    1.0624209289    0.5832596444
C      1.3959173986    8.7900071358    5.6694665410
H     -0.3662486950    1.9613504919    0.3301391377
H      1.9958202705    9.6889366988    5.4163460342
H     -0.6874407428    0.7999200414    1.6160459277
H      1.6746282227    8.5275062483    6.7022528242
N     -2.3886692691    1.3154201878    0.5175843498
N     -0.0266003036    9.0430063947    5.6037912464
H     -2.7355306254    1.4672569478   -0.4247690558
H     -0.3734616599    9.1948431547    4.6614378408
C     -3.0150677096    2.2139752112    1.3672108335
C     -0.6529987441    9.9415614181    6.4534177301
N     -3.8994232240    3.0048129396    0.8896279999
N     -1.5373542585   10.7323991465    5.9758348964
H     -4.3705344724    3.5230855289    1.6314635631
H     -2.0084655069   11.2506717358    6.7176704597
N     -2.5720647182    2.1512395680    2.6790970684
N     -0.2099957527    9.8788257749    7.7653039649
H     -2.3211832971    1.2286694470    3.0158420730
H      0.0408856685    8.9562556539    8.1020489695
H     -3.1298783383    2.6731131567    3.3423622963
H     -0.7678093728   10.4006993636    8.4285691928
H     -0.3174664763   -2.7633062823   -0.7944828040
H      2.0446024892    4.9642799246    4.2917240926
H      1.1048247856   -3.2743321452   -0.1246625193
H      3.4668937511    4.4532540617    4.9615443772
H      1.0699353043   -1.2665125150   -2.2489342394
H      3.4320042699    6.4610736919    2.8372726571
H      4.4036056189   -0.9788937328   -1.6463628356
H      6.7656745844    6.7486924741    3.4398440609
