30

Cl     4.4278701818    2.2819898047    1.0570603839
Cl     4.8002437668   -0.8634330038    0.9227720015
C      4.1923205843    1.7846168689   -0.5895670531
C      4.5646941693   -1.3608059396   -0.7238554355
C      2.9954962224    1.1504691946   -0.9654639648
C      3.3678698074   -1.9949536140   -1.0997523471
H      2.2268865917    0.9788400774   -0.1985686174
H      2.5992601767   -2.1665827312   -0.3328569997
C      2.7929531806    0.7456710130   -2.2889183800
C      3.1653267656   -2.3997517956   -2.4232067623
H      1.8475819063    0.2501409920   -2.5585762413
H      2.2199554913   -2.8952818165   -2.6928646236
C      3.7774398116    0.9613669284   -3.2764079452
C      4.1498133966   -2.1840558802   -3.4106963276
C      3.5483334285    0.5400177384   -4.7059328746
C      3.9207070135   -2.6054050702   -4.8402212569
H      3.1901230941   -0.5078546656   -4.7640522812
H      3.5624966791   -3.6532774742   -4.8983406635
H      4.4729709997    0.6198907229   -5.3093104625
H      4.8453445847   -2.5255320857   -5.4435988448
H      2.7744243623    1.1728444544   -5.1899141656
H      3.1467979473   -1.9725783541   -5.3242025480
C      4.9723298852    1.5947400146   -2.8911092236
C      5.3447034702   -1.5506827940   -3.0253976059
H      5.7670908109    1.7810381219   -3.6283202818
H      6.1394643959   -1.3643846867   -3.7626086641
C      5.1874982319    2.0061085224   -1.5648273041
C      5.5598718169   -1.1393142862   -1.6991156864
Cl     6.6830769336    2.7844623406   -1.1477658538
Cl     7.0554505186   -0.3609604680   -1.2820542362

