30

Cl     2.7894331701    5.4421171723   -1.8363391578
Cl     4.8002437668   -0.8634330038    0.9227720015
C      2.5538835726    4.9447442365   -3.4829665948
C      4.5646941693   -1.3608059396   -0.7238554355
C      1.3570592108    4.3105965622   -3.8588635064
C      3.3678698074   -1.9949536140   -1.0997523471
H      0.5884495801    4.1389674450   -3.0919681591
H      2.5992601767   -2.1665827312   -0.3328569997
C      1.1545161690    3.9057983806   -5.1823179216
C      3.1653267656   -2.3997517956   -2.4232067623
H      0.2091448947    3.4102683596   -5.4519757830
H      2.2199554913   -2.8952818165   -2.6928646236
C      2.1390028000    4.1214942960   -6.1698074869
C      4.1498133966   -2.1840558802   -3.4106963276
C      1.9098964169    3.7001451060   -7.5993324163
C      3.9207070135   -2.6054050702   -4.8402212569
H      1.5516860825    2.6522727020   -7.6574518229
H      3.5624966791   -3.6532774742   -4.8983406635
H      2.8345339881    3.7800180905   -8.2027100041
H      4.8453445847   -2.5255320857   -5.4435988448
H      1.1359873507    4.3329718220   -8.0833137073
H      3.1467979473   -1.9725783541   -5.3242025480
C      3.3338928736    4.7548673822   -5.7845087653
C      5.3447034702   -1.5506827940   -3.0253976059
H      4.1286537993    4.9411654895   -6.5217198235
H      6.1394643959   -1.3643846867   -3.7626086641
C      3.5490612203    5.1662358900   -4.4582268457
C      5.5598718169   -1.1393142862   -1.6991156864
Cl     5.0446399220    5.9445897081   -4.0411653955
Cl     7.0554505186   -0.3609604680   -1.2820542362

