40

H      0.5734887214   -1.5180862224   -0.8734178161
H      1.5734887214    6.6405344673    1.5265821839
C      0.3130776813   -0.5151701886   -0.5008639019
C      1.3130776813    7.6434505010    1.8991360981
O      0.6469904810   -0.4661417182    0.8965030986
O      1.6469904810    7.6924789715    3.2965030986
C     -0.4801787734   -0.2268764951    1.5597198919
C      0.5198212266    7.9317441945    3.9597198919
O     -0.3434928351   -0.1207935799    2.8644416656
O      0.6565071649    8.0378271098    5.2644416656
H     -1.2125421420    0.0770170963    3.2405025841
H     -0.2125421420    8.2356377859    5.6405025841
C     -1.6026144905   -0.1479001724    0.7881738075
C     -0.6026144905    8.0107205173    3.1881738075
C     -1.1934896903   -0.2822380026   -0.5733803038
C     -0.1934896903    7.8763826871    1.8266196962
O     -1.8670084027   -0.2028558101   -1.5859786983
O     -0.8670084027    7.9557648796    0.8140213017
O     -2.8539172314    0.1063879384    1.2366110718
O     -1.8539172314    8.2650086281    3.6366110718
H     -3.4044080722    0.2153144863    0.4479433038
H     -2.4044080722    8.3739351760    2.8479433038
C      1.0998787548    0.5277601629   -1.2641510554
C      2.0998787548    8.6863808526    1.1358489446
H      0.7973517362    0.3831374896   -2.3183098712
H      1.7973517362    8.5417581793    0.0816901288
O      0.7446214597    1.8004119883   -0.7871468854
O      1.7446214597    9.9590326779    1.6128531146
H      0.7081162197    2.4114040165   -1.5271746621
H      1.7081162197   10.5700247062    0.8728253379
C      2.6090578665    0.3296800058   -1.1223800462
C      3.6090578665    8.4883006954    1.2776199538
H      3.1169918060    1.0133859103   -1.8223523216
H      4.1169918060    9.1720065999    0.5776476784
H      2.8877593508    0.6447931805   -0.1014394207
H      3.8877593508    8.8034138702    2.2985605793
O      3.0233713730   -0.9754551240   -1.4200332770
O      4.0233713730    7.1831655657    0.9799667230
H      2.9781461873   -1.4955749618   -0.6121671636
H      3.9781461873    6.6630457279    1.7878328364
