48

C      0.5156185084    1.5170590190    0.0244361241
C      1.2822874606    1.2885332292    3.7736138557
O     -0.5850937520    1.2407464593    0.8453258708
O      0.1815752001    1.0122206695    4.5945036024
C     -0.8827982431   -0.1416160389    0.9759856307
C     -0.1161292910   -0.3701418287    4.7251633623
C      0.2954520173   -0.8758308270    1.6018353130
C      1.0621209694   -1.1043566168    5.3510130445
O      0.0002051310   -2.2390360424    1.6670219836
O      0.7668740832   -2.4675618322    5.4161997152
C      1.5409559754   -0.6226439077    0.7734577388
C      2.3076249275   -0.8511696975    4.5226354704
C      1.7642662931    0.8645758963    0.6114178429
C      2.5309352453    0.6360501065    4.3605955745
O      2.8802022946    1.0532245799   -0.2105677244
O      3.6468712468    0.8246987901    3.5386100072
O      2.6155295063   -1.2638515032    1.4050004503
O      3.3821984584   -1.4923772930    5.1541781819
C     -2.1581132066   -0.2218247836    1.7873770410
C     -1.3914442544   -0.4503505734    5.5365547726
O     -3.1902962703    0.4871734585    1.1721693207
O     -2.4236273182    0.2586476687    4.9213470523
O      0.6699273098    2.8850316219   -0.0917386254
O      1.4365962619    2.6565058321    3.6574391062
H     -1.0760594030   -0.5722657747   -0.0269560721
H     -0.3093904508   -0.8007915645    3.7222216595
H      0.4721360503   -0.4507194290    2.6128459769
H      1.2388050025   -0.6792452188    6.3620237085
H      1.3691860688   -1.0511730572   -0.2361343209
H      2.1358550210   -1.2796988470    3.5130434107
H      1.9209681813    1.3037503527    1.6209695298
H      2.6876371335    1.0752245629    5.3701472614
H      0.3508004751    1.1315741838   -1.0016079905
H      1.1174694272    0.9030483940    2.7475697411
H      0.6903524873    3.2452095331    0.8051840090
H      1.4570214394    3.0166837433    4.5543617406
H      2.9262765196    1.9941188498   -0.4212091360
H      3.6929454718    1.7655930600    3.3279685956
H      3.4102111171   -1.0526649979    0.9003294052
H      4.1768800693   -1.2811907877    4.6495071368
H      0.8263317744   -2.6849281168    1.8928175197
H      1.5930007266   -2.9134539066    5.6419952513
H     -1.9428628425    0.1503153702    2.8108536802
H     -1.1761938903   -0.0782104196    6.5600314118
H     -2.4565048505   -1.2761899968    1.8752118119
H     -1.6898358984   -1.5047157866    5.6243895435
H     -2.8198735804    1.3495841061    0.9452607872
H     -2.0532046283    1.1210583163    4.6944385188
