92

C     -3.9968304837   -2.1561944937   -1.0393832907
C     -9.4968304837   -2.1561944937    1.7289093923
O     -4.8371729259   -2.8429362224   -1.5824179573
O    -10.3371729259   -2.8429362224    1.1858747256
C     -4.2234713905   -0.6995340104   -0.7061669188
C     -9.7234713905   -0.6995340104    2.0621257641
C     -2.9405194118    0.1068650145   -0.8184110856
C     -8.4405194118    0.1068650145    1.9498815973
C     -2.7094698367   -2.7045985934   -0.5864140638
C     -8.2094698367   -2.7045985934    2.1818786191
C     -1.7337327198   -1.9578274624   -0.0289935753
C     -7.2337327198   -1.9578274624    2.7392991077
C     -0.5365336195   -2.5997890172    0.6038509669
C     -6.0365336195   -2.5997890172    3.3721436498
C      0.7750957911   -1.9327294045    0.2126964816
C     -4.7249042089   -1.9327294045    2.9809891645
C      0.7201182323   -0.4326182974    0.4641731518
C     -4.7798817677   -0.4326182974    3.2324658347
C      2.0094156981    0.2749795866    0.0840340714
C     -3.4905843019    0.2749795866    2.8523267543
C      3.3412521769   -0.1821471116    0.6867657398
C     -2.1587478231   -0.1821471116    3.4550584228
C      4.2747515079    1.0331947560    0.4978020724
C     -1.2252484921    1.0331947560    3.2660947553
C      3.4048041699    2.1522135637   -0.0938160380
C     -2.0951958301    2.1522135637    2.6744766449
O      3.8789762471    3.4031782331    0.3214499151
O     -1.6210237529    3.4031782331    3.0897425981
C      1.9756363831    1.7855002149    0.3543941700
C     -3.5243636169    1.7855002149    3.1226868529
C      1.8085989413    2.1359091043    1.8334853358
C     -3.6914010587    2.1359091043    4.6017780187
C      0.8508801317    2.3957512090   -0.4755775927
C     -4.6491198683    2.3957512090    2.2927150902
C     -0.4892896577    1.7189419581   -0.1892872222
C     -5.9892896577    1.7189419581    2.5790054607
C     -0.4475728484    0.1923204125   -0.3215405614
C     -5.9475728484    0.1923204125    2.4467521215
C     -1.8049826414   -0.4496409699    0.0414778018
C     -7.3049826414   -0.4496409699    2.8097704848
H     -2.6085859563   -3.7919894484   -0.6600338762
H     -8.1085859563   -3.7919894484    2.1082588067
H     -0.6576111308   -2.5053914141    1.7005922103
H     -6.1576111308   -2.5053914141    4.4688848933
H     -0.5265289546   -3.6775123729    0.3820691959
H     -6.0265289546   -3.6775123729    3.1503618788
H      1.6042878121   -2.3880547820    0.7758860635
H     -3.8957121879   -2.3880547820    3.5441787464
H      0.9817034309   -2.1135976278   -0.8572948824
H     -4.5182965691   -2.1135976278    1.9109978005
H      0.5379662854   -0.2769958770    1.5455062340
H     -4.9620337146   -0.2769958770    4.3137989170
H      2.1062451245    0.1706757737   -1.0158426560
H     -3.3937548755    0.1706757737    1.7524500269
H      3.2183307806   -0.4288149164    1.7535551667
H     -2.2816692194   -0.4288149164    4.5218478497
H      3.7252123416   -1.0886035889    0.1975012224
H     -1.7747876584   -1.0886035889    2.9657939054
H      4.6838084818    1.3930264020    1.4533834148
H     -0.8161915182    1.3930264020    4.2216760977
H      5.1357543245    0.8125602028   -0.1488410519
H     -0.3642456755    0.8125602028    2.6194516311
H      3.4268431703    2.0814483705   -1.2016480084
H     -2.0731568297    2.0814483705    1.5666446745
H      3.3825812672    4.0824720274   -0.1459820914
H     -2.1174187328    4.0824720274    2.6223105916
H      0.8133800127    1.8715525774    2.2154211025
H     -4.6866199873    1.8715525774    4.9837137854
H      2.5510918625    1.6306268766    2.4666293629
H     -2.9489081375    1.6306268766    5.2349220459
H      1.9536290669    3.2169808274    1.9724947031
H     -3.5463709331    3.2169808274    4.7407873861
H      0.7638114165    3.4813831285   -0.2926354474
H     -4.7361885835    3.4813831285    2.4756572355
H      1.0953190130    2.2720915940   -1.5468559856
H     -4.4046809870    2.2720915940    1.2214366973
H     -0.8312242570    1.9772263435    0.8282911412
H     -6.3312242570    1.9772263435    3.5965838242
H     -1.2472617382    2.1297297861   -0.8725290826
H     -6.7472617382    2.1297297861    1.8957636003
H     -0.2619737605   -0.0452740104   -1.3884965555
H     -5.7619737605   -0.0452740104    1.3797961274
H     -4.6059125169   -0.6635299761    0.3307131736
H    -10.1059125169   -0.6635299761    3.0990058566
H     -5.0208327880   -0.3135683858   -1.3567155862
H    -10.5208327880   -0.3135683858    1.4115770967
H     -2.6077673147    0.1077469937   -1.8722362874
H     -8.1077673147    0.1077469937    0.8960563955
H     -3.1367195885    1.1555598958   -0.5529690861
H     -8.6367195885    1.1555598958    2.2153235969
H     -2.0041001288   -0.1972868695    1.1045162050
H     -7.5041001288   -0.1972868695    3.8728088879
