51        
test/plastocyanin/nonRegContainer.pdb
Cu 14.428000 41.337002 11.177000
N 10.666000 39.153999 10.635000
C 11.207000 40.396999 10.084000
C 10.044000 41.252998 9.559000
O 8.959000 40.751999 9.260000
C 12.155000 40.137001 8.913000
C 13.371000 39.317001 9.184000
N 14.311000 39.688999 10.117000
C 13.791000 38.148998 8.643000
C 15.277000 38.803001 10.153000
H 15.798675 37.684792 8.496641
N 15.072145 37.717136 9.197504
N 14.329000 46.791000 9.865000
C 13.480000 45.744999 10.406000
C 13.214000 46.028999 11.890000
O 14.150000 45.991001 12.681000
C 14.193000 44.389000 10.268000
S 13.229000 43.118000 11.093000
N 14.739000 43.915001 14.797000
C 16.169001 43.735001 14.692000
C 16.912001 45.027000 14.453000
O 18.082001 45.021000 14.087000
C 16.483000 42.745998 13.533000
C 15.913000 41.386002 13.832000
N 15.153000 40.693001 12.938000
C 16.000999 40.613998 14.957000
C 14.797000 39.534000 13.486000
H 14.521131 39.279457 15.522685
N 15.275216 39.349205 14.854410
H 11.430090 38.577179 10.986920
H 10.166190 38.647362 9.904310
H 11.747710 40.890572 10.864340
H 10.174850 42.271320 9.454430
H 11.594260 39.637501 8.150790
H 12.530020 41.102539 8.644680
H 13.306940 37.590939 7.922390
H 16.104820 38.832371 10.768530
H 14.508780 46.606522 8.878060
H 15.212730 46.808868 10.374030
H 12.553520 45.719490 9.871320
H 12.260510 46.248959 12.217880
H 15.162530 44.448689 10.716720
H 14.293800 44.143261 9.231490
H 14.293480 43.011581 14.957440
H 14.382940 44.320770 13.931570
H 16.502951 43.345348 15.630910
H 16.428810 45.927029 14.599600
H 16.051729 43.117119 12.626810
H 17.544491 42.661060 13.428490
H 16.512461 40.850368 15.821620
H 14.233120 38.804081 13.023090
