19

N 1.054000 -0.485000 3.314000
C 0.263000 -0.586000 2.072000
C 1.019000 0.012000 0.842000
O 0.593000 -0.354000 -0.318000
C -1.092000 0.124000 2.292000
C -2.038000 0.225000 1.078000
C -2.418000 -1.127000 0.461000
O -3.520000 -1.635000 0.662000
O -1.491000 -1.703000 -0.286000
O 1.954000 0.805000 1.059000
H 2.211843 0.751584 1.982181
H 0.122147 -1.619655 1.901803
H -1.603300 -0.400199 3.054258
H -0.763396 1.126603 2.355684
H -2.921342 0.711944 1.393976
H -1.366023 0.592231 0.349415
H 2.110068 -0.488597 3.269762
H 0.564404 -0.409072 4.247691
H -0.533266 -1.429920 0.068150
