10

H      0.5375446364    0.1633023928    0.9515876984
H      0.5375446364    0.1633023928    7.8332761645
C     -0.0002679913    0.0002650992   -0.0002463826
C     -0.0002679913    0.0002650992    6.8814420835
H      0.2092156343    0.8389712088   -0.6907546628
H      0.2092156343    0.8389712088    6.1909338033
H      0.3406095782   -0.9477329711   -0.4569149107
H      0.3406095782   -0.9477329711    6.4247735554
H     -1.0872018576   -0.0549057296    0.1961282577
H     -1.0872018576   -0.0549057296    7.0778167238

