34

C     -1.9517440000    0.2128360000    0.0000000000
C     -1.9517440000   -0.6256370000    1.2759570000
C     -1.9517440000   -0.6256370000   -1.2759570000
C     -1.9517440000    0.2249480000    2.5434140000
C     -1.9517440000    0.2249480000   -2.5434140000
H     -2.8304730000    0.8722960000    0.0000000000
H     -1.0730140000    0.8722960000    0.0000000000
H     -2.8297540000   -1.2837350000    1.2739330000
H     -1.0737330000   -1.2837350000    1.2739330000
H     -2.8297540000   -1.2837350000   -1.2739330000
H     -1.0737330000   -1.2837350000   -1.2739330000
H     -2.8357690000    0.8691630000    2.5798990000
H     -1.0677180000    0.8691630000    2.5798990000
H     -1.9517440000   -0.3967320000    3.4436170000
H     -2.8357690000    0.8691630000   -2.5798990000
H     -1.0677180000    0.8691630000   -2.5798990000
H     -1.9517440000   -0.3967320000   -3.4436170000
C      1.2552528691   -0.3665910936   -0.1016226337
C      1.2552528691    0.4718819064   -1.3775796337
C      1.2552528691    0.4718819064    1.1743343663
C      1.2552528691   -0.3787030936   -2.6450366337
C      1.2552528691   -0.3787030936    2.4417913663
H      0.3765228691   -1.0260510936   -0.1016226337
H      2.1339818691   -1.0260510936   -0.1016226337
H      0.3772418691    1.1299799064   -1.3755556337
H      2.1332628691    1.1299799064   -1.3755556337
H      0.3772418691    1.1299799064    1.1723103663
H      2.1332628691    1.1299799064    1.1723103663
H      0.3712268691   -1.0229180936   -2.6815216337
H      2.1392778691   -1.0229180936   -2.6815216337
H      1.2552528691    0.2429769064   -3.5452396337
H      0.3712268691   -1.0229180936    2.4782763663
H      2.1392778691   -1.0229180936    2.4782763663
H      1.2552528691    0.2429769064    3.3419943663
