34

C     -1.9517440000    0.2128360000    0.0000000000
C     -1.9517440000   -0.6256370000    1.2759570000
C     -1.9517440000   -0.6256370000   -1.2759570000
C     -1.9517440000    0.2249480000    2.5434140000
C     -1.9517440000    0.2249480000   -2.5434140000
H     -2.8304730000    0.8722960000    0.0000000000
H     -1.0730140000    0.8722960000    0.0000000000
H     -2.8297540000   -1.2837350000    1.2739330000
H     -1.0737330000   -1.2837350000    1.2739330000
H     -2.8297540000   -1.2837350000   -1.2739330000
H     -1.0737330000   -1.2837350000   -1.2739330000
H     -2.8357690000    0.8691630000    2.5798990000
H     -1.0677180000    0.8691630000    2.5798990000
H     -1.9517440000   -0.3967320000    3.4436170000
H     -2.8357690000    0.8691630000   -2.5798990000
H     -1.0677180000    0.8691630000   -2.5798990000
H     -1.9517440000   -0.3967320000   -3.4436170000
C      5.8639985357   -0.4820334529    0.1254772154
C      5.8639985357    0.3564395471   -1.1504797846
C      5.8639985357    0.3564395471    1.4014342154
C      5.8639985357   -0.4941454529   -2.4179367846
C      5.8639985357   -0.4941454529    2.6688912154
H      4.9852685357   -1.1414934529    0.1254772154
H      6.7427275357   -1.1414934529    0.1254772154
H      4.9859875357    1.0145375471   -1.1484557846
H      6.7420085357    1.0145375471   -1.1484557846
H      4.9859875357    1.0145375471    1.3994102154
H      6.7420085357    1.0145375471    1.3994102154
H      4.9799725357   -1.1383604529   -2.4544217846
H      6.7480235357   -1.1383604529   -2.4544217846
H      5.8639985357    0.1275345471   -3.3181397846
H      4.9799725357   -1.1383604529    2.7053762154
H      6.7480235357   -1.1383604529    2.7053762154
H      5.8639985357    0.1275345471    3.5690942154
