24

C      1.5720008281   -0.0086454442   -0.8216400557
C      0.8365919244   -1.2005162894   -0.9620663597
C     -0.5401497921   -1.1382634163   -1.2394172038
C     -1.1808187077    0.0993583534   -1.3767694569
C     -0.4408629787    1.2943103917   -1.2396529673
C      0.9404455496    1.2307189495   -0.9605386489
C     -0.0849695566    0.0606593070    1.5878845174
C      1.5287184315   -2.5355464347   -0.8530828062
F      2.5962842824   -2.4829399124   -0.0231982113
F      0.6944635118   -3.5010299879   -0.3980894006
F      1.9914268136   -2.9548311342   -2.0622546160
H     -1.1190037555   -2.0685634830   -1.3276989863
H     -2.2606923818    0.1420448368   -1.5748883965
C     -2.0024262186    2.7648195513   -2.2858191852
O     -1.0032966646    2.5332472778   -1.3031286286
H     -2.2773143923    3.8329199016   -2.2070860615
H     -1.6168074079    2.5592052892   -3.3090462087
H     -2.9199503887    2.1572554057   -2.1211531119
H      1.4974271250    2.1701622665   -0.8403983533
H      2.6442117603   -0.0557546323   -0.5852052838
Cl     0.9387077996    1.3896080700    2.2034466871
H     -1.1123337213    0.2076954214    1.9638751362
H     -0.0283473684    0.0950489329    0.4887274124
Cl     0.4778590457   -1.5599408362    2.0842441767
