44

C      3.0334604317    0.9142278802    0.3666213690
C      4.6944773808    0.9142278802    3.3327230639
C      3.4941007568   -0.3743731863    0.0305311260
C      5.1551177060   -0.3743731863    2.9966328209
C      2.5605546299   -1.3418508593   -0.2698774665
C      4.2215715791   -1.3418508593    2.6962242285
C      1.1889948888   -1.0154743335   -0.2316640004
C      2.8500118380   -1.0154743335    2.7344376945
C      0.8399145653    0.3177785897    0.1198989822
C      2.5009315144    0.3177785897    3.0860006771
N      1.7627876207    1.2496305245    0.4103203815
N      3.4238045699    1.2496305245    3.3764220765
C     -0.5679607683    0.6860849712    0.1662159059
C      1.0930561808    0.6860849712    3.1323176008
C     -1.5455588894   -0.3003537609   -0.1410489043
C      0.1154580597   -0.3003537609    2.8250527906
C     -1.1459484512   -1.6310770303   -0.4888174559
C      0.5150684980   -1.6310770303    2.4772842390
C      0.1690003812   -1.9748438910   -0.5324706300
C      1.8300173303   -1.9748438910    2.4336310649
C     -2.1693966483    2.2748210339    0.5390806569
C     -0.5083796991    2.2748210339    3.5051823518
C     -3.2211978313    1.3817104102    0.2541732728
C     -1.5601808821    1.3817104102    3.2202749677
C     -2.9009831263    0.0862525858   -0.0881010835
C     -1.2399661771    0.0862525858    2.8780006115
H      3.7561201239    1.7028629812    0.6105260680
H      5.4171370730    1.7028629812    3.5766277629
H      4.5646663321   -0.5896433691    0.0117112152
H      6.2256832812   -0.5896433691    2.9778129102
H      2.8637470163   -2.3574204319   -0.5382700940
H      4.5247639654   -2.3574204319    2.4278316009
H     -1.9218878503   -2.3658218842   -0.7190092303
H     -0.2608709012   -2.3658218842    2.2470924646
H      0.4712966131   -2.9908761747   -0.7990808321
H      2.1323135623   -2.9908761747    2.1670208629
H     -2.3974706519    3.3117281911    0.8149360291
H     -0.7364537028    3.3117281911    3.7810377240
H     -4.2587349654    1.7181997942    0.3062293310
H     -2.5977180163    1.7181997942    3.2723310259
H     -3.6783310034   -0.6470173085   -0.3197605691
H     -2.0173140543   -0.6470173085    2.6463411258
N     -0.8971731741    1.9454552676    0.4978659286
N      0.7638437750    1.9454552676    3.4639676235

